@<TRIPOS>MOLECULE
UNK
  121   127     1     0     0
SMALL
bcc


@<TRIPOS>ATOM
      1 O1           4.1000    14.9400     2.8000 o        900 UNK      -0.595500
      2 C1           4.8620    15.5280     2.0370 c        900 UNK       0.682500
      3 C2           5.0580    15.1230     0.5820 c3       900 UNK       0.060700
      4 N1           3.8550    14.4550     0.0670 n        900 UNK      -0.515400
      5 C3           2.6000    15.0690    -0.0240 c        900 UNK       0.732100
      6 C4           1.6240    13.9680    -0.1870 ca       900 UNK      -0.080600
      7 C5           0.2520    14.0380    -0.3670 ca       900 UNK      -0.112000
      8 C6          -0.4310    12.8270    -0.4850 ca       900 UNK      -0.072000
      9 C7           0.2370    11.6000    -0.4210 ca       900 UNK      -0.180000
     10 C8           1.6320    11.5260    -0.2320 ca       900 UNK       0.259600
     11 N2           2.2750    10.3290    -0.1640 nu       900 UNK      -0.754600
     12 C9           1.5860     9.0570    -0.2500 c3       900 UNK       0.200800
     13 C10          2.5820     7.9270    -0.0600 c3       900 UNK       0.121400
     14 O2           1.8640     6.6930    -0.1490 os       900 UNK      -0.426600
     15 C11          2.7020     5.5530     0.0460 c3       900 UNK       0.128400
     16 C12          1.8210     4.3300    -0.1440 c3       900 UNK       0.130400
     17 O3           2.6450     3.1730     0.0130 os       900 UNK      -0.428600
     18 C13          1.9180     1.9700    -0.2500 c3       900 UNK       0.129400
     19 C14          2.8820     0.8030    -0.1240 c3       900 UNK       0.130400
     20 O4           2.1480    -0.3670    -0.4860 os       900 UNK      -0.437600
     21 C15          2.9420    -1.5580    -0.4510 c3       900 UNK       0.141400
     22 C16          2.0870    -2.6690    -1.0320 c3       900 UNK      -0.153400
     23 C17          2.8130    -3.9950    -1.1060 c        900 UNK       0.658100
     24 N3           2.2660    -4.9630    -1.8830 n        900 UNK      -0.464800
     25 C18          0.8740    -4.9780    -2.3420 c3       900 UNK       0.081500
     26 C19          0.0460    -5.9310    -1.4950 c3       900 UNK       0.161800
     27 C20          2.8410    -6.3100    -1.9180 c3       900 UNK       0.081500
     28 C21          2.0130    -7.2850    -1.0930 c3       900 UNK       0.161800
     29 N4           0.6150    -7.2950    -1.5550 nh       900 UNK      -0.636000
     30 C22         -0.2050    -8.3330    -1.0980 ca       900 UNK       0.139600
     31 C23         -1.5460    -8.4000    -1.5310 ca       900 UNK      -0.172500
     32 C24         -2.3610    -9.4560    -1.1700 ca       900 UNK      -0.085000
     33 C25          0.2730    -9.3770    -0.2740 ca       900 UNK      -0.172500
     34 C26         -0.5460   -10.4430     0.0640 ca       900 UNK      -0.085000
     35 C27         -1.8790   -10.4990    -0.3690 ca       900 UNK      -0.140900
     36 C28         -2.7160   -11.6800    -0.0420 ce       900 UNK       0.436500
     37 N5          -2.0550   -12.8040    -0.0530 n2       900 UNK      -0.462300
     38 N6          -2.4740   -13.8560     0.7390 n        900 UNK      -0.225800
     39 C29         -1.3980   -14.6780     1.1490 c        900 UNK       0.788100
     40 N7          -0.1710   -14.1860     0.8820 ns       900 UNK      -0.537900
     41 C30          1.0100   -15.0040     1.1350 c3       900 UNK       0.077300
     42 O5          -1.5980   -15.7500     1.7400 o        900 UNK      -0.634100
     43 C31         -3.7850   -14.5640     0.5280 c3       900 UNK       0.091700
     44 C32         -4.5730   -14.6730     1.8300 c3       900 UNK      -0.112100
     45 C33         -4.5720   -13.8760    -0.5960 c3       900 UNK      -0.052100
     46 C34         -5.0730   -12.5450    -0.1410 ca       900 UNK      -0.039300
     47 C35         -6.4390   -12.3390     0.0670 ca       900 UNK      -0.197000
     48 C36         -6.9090   -11.1830     0.6850 ca       900 UNK       0.111100
     49 O6          -8.2200   -10.9180     0.9320 os       900 UNK      -0.321900
     50 C37         -9.1700   -11.9030     0.5020 c3       900 UNK       0.111700
     51 C38         -5.9890   -10.2050     1.1100 ca       900 UNK       0.068100
     52 O7          -6.4370    -9.0930     1.8000 os       900 UNK      -0.328900
     53 C39         -6.8180    -8.0000     0.9330 c3       900 UNK       0.115700
     54 C40         -4.6440   -10.3800     0.8720 ca       900 UNK      -0.088000
     55 C41         -4.1490   -11.5400     0.2350 ca       900 UNK      -0.161900
     56 O8           3.8730    -4.1720    -0.4790 o        900 UNK      -0.608100
     57 C42          2.3170    12.7600    -0.1190 ca       900 UNK      -0.252600
     58 C43          3.7460    13.0540     0.0840 c        900 UNK       0.748100
     59 O9           4.6970    12.2950     0.2360 o        900 UNK      -0.604500
     60 O10          2.3950    16.2720     0.0480 o        900 UNK      -0.567500
     61 C44          5.5270    16.2840    -0.2920 c3       900 UNK      -0.097400
     62 C45          6.7720    16.9130     0.3240 c3       900 UNK      -0.153400
     63 N8           5.6480    16.5700     2.4810 ns       900 UNK      -0.595500
     64 C46          6.5830    17.2980     1.7610 c        900 UNK       0.703500
     65 O11          7.2310    18.1820     2.3190 o        900 UNK      -0.603500
     66 H1           5.8450    14.3580     0.5880 h1       900 UNK       0.107700
     67 H2          -0.2630    14.9920    -0.4110 ha       900 UNK       0.160000
     68 H3          -1.5080    12.8280    -0.6270 ha       900 UNK       0.143000
     69 H4          -0.3410    10.6860    -0.5190 ha       900 UNK       0.146000
     70 H5           3.2770    10.3410    -0.0250 hn       900 UNK       0.451800
     71 H6           0.7990     8.9900     0.5170 h1       900 UNK       0.056700
     72 H7           1.0850     8.9500    -1.2240 h1       900 UNK       0.056700
     73 H8           3.3580     7.9710    -0.8390 h1       900 UNK       0.041700
     74 H9           3.0700     8.0120     0.9230 h1       900 UNK       0.041700
     75 H10          3.5220     5.5440    -0.6890 h1       900 UNK       0.045200
     76 H11          3.1370     5.5600     1.0570 h1       900 UNK       0.045200
     77 H12          1.0080     4.3250     0.5990 h1       900 UNK       0.042700
     78 H13          1.3730     4.3460    -1.1490 h1       900 UNK       0.042700
     79 H14          1.0880     1.8610     0.4650 h1       900 UNK       0.042200
     80 H15          1.5000     1.9950    -1.2680 h1       900 UNK       0.042200
     81 H16          3.7380     0.9450    -0.8010 h1       900 UNK       0.044200
     82 H17          3.2620     0.7190     0.9060 h1       900 UNK       0.044200
     83 H18          3.8540    -1.4170    -1.0480 h1       900 UNK       0.049200
     84 H19          3.2420    -1.7810     0.5820 h1       900 UNK       0.049200
     85 H20          1.1870    -2.8000    -0.4130 hc       900 UNK       0.077700
     86 H21          1.7460    -2.3720    -2.0320 hc       900 UNK       0.077700
     87 H22          0.4370    -3.9790    -2.3180 h1       900 UNK       0.067700
     88 H23          0.8680    -5.3270    -3.3820 h1       900 UNK       0.067700
     89 H24          0.0220    -5.5690    -0.4500 h1       900 UNK       0.047450
     90 H25         -0.9790    -5.9230    -1.8660 h1       900 UNK       0.047450
     91 H26          2.8460    -6.6480    -2.9620 h1       900 UNK       0.067700
     92 H27          3.8710    -6.2860    -1.5540 h1       900 UNK       0.067700
     93 H28          2.4540    -8.2800    -1.2200 h1       900 UNK       0.047450
     94 H29          2.0750    -7.0070    -0.0260 h1       900 UNK       0.047450
     95 H30         -1.9410    -7.6240    -2.1790 ha       900 UNK       0.136500
     96 H31         -3.3970    -9.4670    -1.5030 ha       900 UNK       0.140500
     97 H32          1.2860    -9.3540     0.1100 ha       900 UNK       0.136500
     98 H33         -0.1460   -11.2430     0.6840 ha       900 UNK       0.140500
     99 H34         -0.1320   -13.4650     0.1690 hn       900 UNK       0.325500
    100 H35          1.0910   -15.2350     2.2020 h1       900 UNK       0.046367
    101 H36          1.8920   -14.4350     0.8360 h1       900 UNK       0.046367
    102 H37          0.9890   -15.9480     0.5750 h1       900 UNK       0.046367
    103 H38         -3.5290   -15.5780     0.1900 h1       900 UNK       0.093700
    104 H39         -4.0100   -15.2310     2.5810 hc       900 UNK       0.049700
    105 H40         -5.5070   -15.2090     1.6250 hc       900 UNK       0.049700
    106 H41         -4.8200   -13.6850     2.2330 hc       900 UNK       0.049700
    107 H42         -3.9060   -13.7850    -1.4620 hc       900 UNK       0.065200
    108 H43         -5.4150   -14.5160    -0.8680 hc       900 UNK       0.065200
    109 H44         -7.1360   -13.1130    -0.2310 ha       900 UNK       0.140000
    110 H45        -10.1500   -11.5110     0.7810 h1       900 UNK       0.046367
    111 H46         -8.9950   -12.8600     1.0060 h1       900 UNK       0.046367
    112 H47         -9.1210   -12.0390    -0.5850 h1       900 UNK       0.046367
    113 H48         -7.1660    -7.1930     1.5830 h1       900 UNK       0.043367
    114 H49         -7.6260    -8.2970     0.2540 h1       900 UNK       0.043367
    115 H50         -5.9550    -7.6560     0.3470 h1       900 UNK       0.043367
    116 H51         -3.9560    -9.5960     1.1770 ha       900 UNK       0.160000
    117 H52          5.7600    15.8940    -1.2870 hc       900 UNK       0.080700
    118 H53          4.7310    17.0290    -0.3970 hc       900 UNK       0.080700
    119 H54          7.6160    16.2080     0.2920 hc       900 UNK       0.087700
    120 H55          7.0820    17.8050    -0.2260 hc       900 UNK       0.087700
    121 H56          5.5440    16.8240     3.4620 hn       900 UNK       0.339500
@<TRIPOS>BOND
     1     1     2 2   
     2     2     3 1   
     3     2    63 1   
     4     3     4 1   
     5     3    61 1   
     6     3    66 1   
     7     4     5 1   
     8     4    58 1   
     9     5     6 1   
    10     5    60 2   
    11     6     7 ar  
    12     6    57 ar  
    13     7     8 ar  
    14     7    67 1   
    15     8     9 ar  
    16     8    68 1   
    17     9    10 ar  
    18     9    69 1   
    19    10    11 1   
    20    10    57 ar  
    21    11    12 1   
    22    11    70 1   
    23    12    13 1   
    24    12    71 1   
    25    12    72 1   
    26    13    14 1   
    27    13    73 1   
    28    13    74 1   
    29    14    15 1   
    30    15    16 1   
    31    15    75 1   
    32    15    76 1   
    33    16    17 1   
    34    16    77 1   
    35    16    78 1   
    36    17    18 1   
    37    18    19 1   
    38    18    79 1   
    39    18    80 1   
    40    19    20 1   
    41    19    81 1   
    42    19    82 1   
    43    20    21 1   
    44    21    22 1   
    45    21    83 1   
    46    21    84 1   
    47    22    23 1   
    48    22    85 1   
    49    22    86 1   
    50    23    24 1   
    51    23    56 2   
    52    24    25 1   
    53    24    27 1   
    54    25    26 1   
    55    25    87 1   
    56    25    88 1   
    57    26    29 1   
    58    26    89 1   
    59    26    90 1   
    60    27    28 1   
    61    27    91 1   
    62    27    92 1   
    63    28    29 1   
    64    28    93 1   
    65    28    94 1   
    66    29    30 1   
    67    30    31 ar  
    68    30    33 ar  
    69    31    32 ar  
    70    31    95 1   
    71    32    35 ar  
    72    32    96 1   
    73    33    34 ar  
    74    33    97 1   
    75    34    35 ar  
    76    34    98 1   
    77    35    36 1   
    78    36    37 2   
    79    36    55 1   
    80    37    38 1   
    81    38    39 1   
    82    38    43 1   
    83    39    40 1   
    84    39    42 2   
    85    40    41 1   
    86    40    99 1   
    87    41   100 1   
    88    41   101 1   
    89    41   102 1   
    90    43    44 1   
    91    43    45 1   
    92    43   103 1   
    93    44   104 1   
    94    44   105 1   
    95    44   106 1   
    96    45    46 1   
    97    45   107 1   
    98    45   108 1   
    99    46    47 ar  
   100    46    55 ar  
   101    47    48 ar  
   102    47   109 1   
   103    48    49 1   
   104    48    51 ar  
   105    49    50 1   
   106    50   110 1   
   107    50   111 1   
   108    50   112 1   
   109    51    52 1   
   110    51    54 ar  
   111    52    53 1   
   112    53   113 1   
   113    53   114 1   
   114    53   115 1   
   115    54    55 ar  
   116    54   116 1   
   117    57    58 1   
   118    58    59 2   
   119    61    62 1   
   120    61   117 1   
   121    61   118 1   
   122    62    64 1   
   123    62   119 1   
   124    62   120 1   
   125    63    64 1   
   126    63   121 1   
   127    64    65 2   
@<TRIPOS>SUBSTRUCTURE
     1 UNK         1 TEMP              0 ****  ****    0 ROOT
